Circuit: * C:\Development\KiCad\Sensor\Voltage\Draft1.asc

.dc sweep increment has wrong sign -- fixing...
.step v2=88
.step v2=78
.step v2=68
.step v2=58
.step v2=48
.step v2=38
.step v2=28
.step v2=18
.step v2=8
.step v2=-2
.step v2=-12
.step v2=-22
.step v2=-32
.step v2=-42
.step v2=-52
.step v2=-62
.step v2=-72
.step v2=-82
.step v2=-88

Date: Tue Nov 24 06:38:01 2020
Total elapsed time: 0.029 seconds.

tnom = 27
temp = 27
method = trap
totiter = 741
traniter = 0
tranpoints = 0
accept = 0
rejected = 0
matrix size = 10
fillins = 0
solver = Normal
Matrix Compiler1: 346 bytes object code size  0.2/0.1/[0.0]
Matrix Compiler2: 672 bytes object code size  0.1/0.1/[0.0]

