Circuit: * C:\Development\KiCad\Sensor\Voltage\Voltage.asc

Direct Newton iteration failed to find .op point.  (Use ".option noopiter" to skip.)
Starting Gmin stepping
Gmin = 10
Gmin = 1.07374
Gmin = 0.115292
Gmin = 0.0123794
Gmin = 0.00132923
Gmin = 0.000142725
Gmin = 1.5325e-005
vernier = 0.5
vernier = 0.25
Gmin = 5.56034e-006
vernier = 0.333333
vernier = 0.444444
Gmin = 2.58098e-006
vernier = 0.592592
Gmin = 7.63849e-007
vernier = 0.790123
vernier = 1
Gmin = 1.15494e-007
Gmin = 1.24011e-008
Gmin = 1.33156e-009
Gmin = 1.42975e-010
Gmin = 1.53518e-011
Gmin = 1.64839e-012
Gmin = 1.76994e-013
Gmin = 0
Gmin stepping succeeded in finding the operating point.


Date: Mon Aug 10 10:00:34 2020
Total elapsed time: 0.099 seconds.

tnom = 27
temp = 27
method = modified trap
totiter = 1885
traniter = 1088
tranpoints = 464
accept = 325
rejected = 139
matrix size = 79
fillins = 55
solver = Normal
Matrix Compiler1: 7.43 KB object code size  1.1/0.6/[0.3]
Matrix Compiler2: 7.34 KB object code size  0.7/0.9/[0.4]

