Circuit: * C:\Development\KiCad\Sensor\Current Sensor Amp 1.asc

Direct Newton iteration failed to find .op point.  (Use ".option noopiter" to skip.)
Starting Gmin stepping
Gmin = 10
Gmin = 1.07374
Gmin = 0.115292
Gmin = 0.0123794
Gmin = 0.00132923
Gmin = 0.000142725
vernier = 0.5
Gmin = 2.9562e-005
vernier = 0.25
vernier = 0.125
vernier = 0.0625
vernier = 0.03125
Gmin = 3.05805e-005
vernier = 0.015625
vernier = 0.0078125
vernier = 0.00390625
vernier = 0.00195313
Gmin = 3.07293e-005
vernier = 0.000976563
vernier = 0.000488281
Gmin = 0
Gmin stepping failed

Starting source stepping with srcstepmethod=0
Source Step = 3.0303%
Source Step = 14.3939%
Source Step = 21.9697%
Source Step = 29.5455%
Source Step = 37.1212%
Source Step = 44.697%
vernier = 0.375
Source Step = 54.5455%
Source Step = 65.9091%
Source Step = 77.2727%
Source Step = 88.6364%
Source Step = 100%
Source stepping succeeded in finding the operating point.

Direct Newton iteration failed to find .op point.  (Use ".option noopiter" to skip.)
Starting Gmin stepping
Gmin = 10
Gmin = 1.07374
Gmin = 0.115292
Gmin = 0.0123794
Gmin = 0.00132923
Gmin = 0.000142725
Gmin = 1.5325e-005
Gmin = 1.6455e-006
Gmin = 1.76685e-007
vernier = 0.5
vernier = 0.25
Gmin = 6.41063e-008
vernier = 0.125
vernier = 0.0625
vernier = 0.03125
vernier = 0.015625
vernier = 0.0078125
Gmin = 6.65452e-008
vernier = 0.00390625
vernier = 0.00195313
vernier = 0.00260417
Gmin = 6.62535e-008
vernier = 0.00347222
vernier = 0.00462963
Gmin = 6.57049e-008
vernier = 0.00617283
Gmin = 6.48242e-008
vernier = 0.00823044
vernier = 0.0109739
Gmin = 6.34077e-008
vernier = 0.0146319
vernier = 0.0195092
Gmin = 6.12273e-008
vernier = 0.0260122
Gmin = 5.78501e-008
vernier = 0.034683
vernier = 0.0173415
vernier = 0.023122
Gmin = 5.56018e-008
vernier = 0.0308293
vernier = 0.0154146
Gmin = 5.3505e-008
vernier = 0.0205529
vernier = 0.0102764
Gmin = 5.18177e-008
vernier = 0.0137019
vernier = 0.00685095
Gmin = 5.09387e-008
vernier = 0.0091346
vernier = 0.0045673
Gmin = 5.03035e-008
vernier = 0.00608973
vernier = 0.00811964
vernier = 0.00405982
Gmin = 4.97454e-008
vernier = 0.00541309
vernier = 0.00270655
Gmin = 4.93267e-008
vernier = 0.00360873
vernier = 0.00481163
Gmin = 4.89022e-008
vernier = 0.00240582
vernier = 0.00320776
Gmin = 4.86578e-008
vernier = 0.00427701
vernier = 0.0021385
vernier = 0.00285134
Gmin = 4.84157e-008
vernier = 0.00380178
vernier = 0.00190089
Gmin = 4.81748e-008
vernier = 0.00253452
vernier = 0.00337936
vernier = 0.00168968
Gmin = 4.79465e-008
vernier = 0.00225291
Gmin = 4.77108e-008
vernier = 0.00300387
vernier = 0.00150194
vernier = 0.00200258
Gmin = 4.75469e-008
vernier = 0.00267011
vernier = 0.00133505
Gmin = 4.73885e-008
vernier = 0.00178007
vernier = 0.00237343
Gmin = 4.71624e-008
vernier = 0.00316457
vernier = 0.00421943
Gmin = 4.68063e-008
vernier = 0.0056259
Gmin = 4.62342e-008
vernier = 0.0075012
vernier = 0.0100016
Gmin = 4.53124e-008
vernier = 0.0133355
vernier = 0.0177806
Gmin = 4.38899e-008
vernier = 0.0237075
Gmin = 4.16775e-008
vernier = 0.03161
vernier = 0.0421466
Gmin = 3.82972e-008
vernier = 0.0561954
vernier = 0.0749272
Gmin = 3.35041e-008
vernier = 0.099903
Gmin = 2.69917e-008
vernier = 0.133204
vernier = 0.177605
Gmin = 1.89913e-008
vernier = 0.236807
vernier = 0.315742
Gmin = 1.09417e-008
vernier = 0.42099
Gmin = 4.53742e-009
vernier = 0.561319
vernier = 0.748426
Gmin = 1.11609e-009
vernier = 0.997901
vernier = 1
Gmin = 1.40266e-010
Gmin = 1.5061e-011
Gmin = 1.61716e-012
Gmin = 1.73641e-013
Gmin = 0
Gmin stepping succeeded in finding the operating point.

Direct Newton iteration failed to find .op point.  (Use ".option noopiter" to skip.)
Starting Gmin stepping
Gmin = 10
Gmin = 1.07374
Gmin = 0.115292
Gmin = 0.0123794
Gmin = 0.00132923
Gmin = 0.000142725
Gmin = 1.5325e-005
Gmin = 1.6455e-006
Gmin = 1.76685e-007
vernier = 0.5
vernier = 0.25
Gmin = 6.41063e-008
vernier = 0.125
vernier = 0.0625
vernier = 0.03125
Gmin = 6.50096e-008
vernier = 0.0416667
vernier = 0.0555555
Gmin = 5.81599e-008
vernier = 0.074074
vernier = 0.0987653
Gmin = 4.87805e-008
vernier = 0.131687
Gmin = 3.67235e-008
vernier = 0.175583
vernier = 0.23411
Gmin = 2.31647e-008
vernier = 0.312147
vernier = 0.416196
Gmin = 1.12702e-008
vernier = 0.554928
Gmin = 3.58824e-009
vernier = 0.739903
vernier = 0.986537
Gmin = 5.87471e-010
vernier = 1
Gmin = 6.35915e-011
Gmin = 6.82808e-012
Gmin = 7.3316e-013
Gmin = 0
Gmin stepping succeeded in finding the operating point.


Date: Sun Sep 27 06:43:07 2020
Total elapsed time: 0.290 seconds.

tnom = 27
temp = 27
method = trap
totiter = 7432
traniter = 0
tranpoints = 0
accept = 0
rejected = 0
matrix size = 32
fillins = 50
solver = Normal
Thread vector: 6.1/4.4[3] 0.0/0.0[0] 1.1/2.2[1] 0.1/1.1[1]  2592/500
Matrix Compiler1: 4.38 KB object code size  0.7/0.4/[0.1]
Matrix Compiler2: 3.62 KB object code size  0.4/0.4/[0.1]

